         110
  taken from w-B97X-D MD run at 10000 fsec                                            
N	-0.4205948251	-0.8395076130	1.0070956562	
C	-0.6220118270	-0.0375300893	-0.1427848161	
C	-0.3670842134	1.3098234709	-0.0186150689	
C	-0.3956518515	2.1460197264	-1.1382347863	
C	-0.8631223784	1.6979754563	-2.3590257425	
C	-1.1632112259	0.2931443574	-2.4149127124	
C	-1.0225075794	-0.5833637816	-1.3705040180	
H	-1.2400826522	-1.6496082029	-1.5317186520	
H	-1.4692688539	-0.0318193596	-3.4143898326	
H	-0.9158910416	2.2890675092	-3.2476528900	
H	-0.1212016557	3.1848957536	-1.0203151459	
H	-0.1371519576	1.7885832281	0.9479192092	
H	0.2392302207	-0.4004824187	1.6471780009	
H	-0.1798766209	-1.7485791061	0.7670321170	
O	-1.962509228355	0.483255761951	3.426685225171	
H	-2.522622405661	0.013573981227	4.023803896433	
H	-2.484878690922	0.685601565520	2.667037428845	
O	3.359267872585	2.455663306408	2.609148966266	
H	4.086635245940	2.642350015561	3.180955953540	
H	2.769911226321	1.899170748325	3.092732702753	
O	2.704410730820	1.876902515367	-5.577820742002	
H	2.322329488051	2.686490383626	-5.876919156491	
H	2.745421693549	1.927850711660	-4.636225905414	
O	0.260922997154	-3.186344474285	-0.128356686725	
H	0.992222015276	-3.512432096825	0.371390311768	
H	0.536289435675	-3.166841067995	-1.030948175529	
O	0.867691684731	-3.874259764805	-2.647479205549	
H	1.093905769491	-4.778553982469	-2.795660208754	
H	0.049849929398	-3.722595384283	-3.093585956081	
O	-1.646534689239	-3.665901048156	-3.147743196828	
H	-1.971524044580	-3.865160554362	-2.284287336787	
H	-2.078964571938	-2.873798990624	-3.424252113756	
O	-3.829534118508	0.888139468770	1.260763609411	
H	-4.460046086001	1.439340959537	1.696091106225	
H	-3.698891424018	1.252816449277	0.400053646460	
O	1.899346080253	2.310284978564	-3.109390221809	
H	1.744099446373	3.116717949572	-2.644156087022	
H	1.859028046517	1.616532741351	-2.470672174664	
O	1.771277469005	1.267976356855	4.319265555075	
H	0.953463303222	1.733372134248	4.245338465124	
H	1.556929994708	0.350782664869	4.380005538960	
O	-0.976350573398	4.814072111501	-3.937128234100	
H	-1.192356337710	4.132989904541	-4.553851017212	
H	-0.896415566790	5.613394510805	-4.432681007023	
O	-3.558289905521	-3.204295765189	3.532798310302	
H	-4.338547831393	-3.732668465553	3.586634289731	
H	-3.683194874480	-2.608758658469	2.811263309552	
O	-2.269329324963	-3.683216207535	-0.504324957098	
H	-1.426751650165	-3.681353825158	-0.078957060382	
H	-2.890994323269	-3.351514024847	0.123675636829	
O	4.268035352655	-3.384088253295	-1.017609186467	
H	3.746763933536	-2.772493967924	-1.512691999487	
H	5.092070954568	-2.958511910273	-0.842313558806	
O	-2.386946472297	4.825416995061	-1.310306588483	
H	-2.071672392850	4.913621862514	-2.195575254130	
H	-1.642482233677	4.949703818863	-0.743557757840	
O	-3.676602098721	2.032817310087	-0.958642554063	
H	-3.122562818744	1.722815487076	-1.657082100648	
H	-3.421157920407	2.924769118638	-0.785296953458	
O	-2.671000785231	-1.274063209753	5.253956336906	
H	-1.924349389071	-1.572957200532	5.747973066418	
H	-3.068417490089	-2.040534740055	4.872564399280	
O	0.363202317327	-1.006433130433	3.666488331977	
H	0.010733249889	-1.863348838972	3.486656524080	
H	-0.358088625369	-0.399919620309	3.613960318550	
O	1.103200828496	4.803667441107	-2.348243863350	
H	0.311973867665	4.744012195054	-2.859399027650	
H	0.863470837366	5.190608589746	-1.521391680213	
O	-0.074457672533	5.501698239687	0.144015102708	
H	0.238713760780	4.994233979167	0.875644880452	
H	-0.078601091615	6.403829861169	0.421539558619	
O	-0.842454900049	-3.501840013417	3.412263534958	
H	-0.401902259069	-4.275091008444	3.097820021276	
H	-1.768379114606	-3.662438559143	3.324224281848	
O	2.968635223486	-0.983550863884	-5.499825815222	
H	3.100821961325	-1.505643016348	-6.274954775406	
H	3.025900707590	-0.080411592967	-5.768039491046	
O	2.761466271611	-2.160040807572	-2.840742591919	
H	2.966104658630	-2.004126550573	-3.748868315193	
H	2.107210808882	-2.840123668250	-2.822978967542	
O	-0.357884529272	-2.597918206222	6.043972468173	
H	-0.351819933675	-3.211683066310	5.326940829224	
H	0.530503346761	-2.297869320524	6.151750489871	
O	-0.138598764552	2.463635161496	-4.956246547643	
H	0.595161674093	2.371728464607	-4.369708201106	
H	-0.026522060579	1.816741972215	-5.634366351438	
O	2.393750875062	-3.661423696626	1.136207422615	
H	3.100908925839	-3.741326053654	0.516190037060	
H	2.573563403255	-2.893943959432	1.655361312640	
O	2.679245184453	-1.411607127211	2.443207695956	
H	1.931314601680	-0.949071094568	2.786046894358	
H	3.155524575243	-0.797776837354	1.907251754424	
O	0.758215829736	3.768983215833	2.284198224228	
H	1.684876672909	3.697992556909	2.448935779591	
H	0.323440445241	3.281289582491	2.965376423457	
O	3.835650916307	0.446467931384	0.909818283588	
H	3.758784365791	1.327983450329	1.238300212037	
H	3.472992472570	0.449092044980	0.038411133479	
O	2.424132829620	0.155024921494	-1.624078009476	
H	2.569217456446	-0.656472340283	-2.083753002504	
H	1.517007614642	0.160693209506	-1.363367118085	
O	0.945698862525	-5.186697906020	2.615827083036	
H	0.962016317788	-6.130160916756	2.593696971083	
H	1.638029472142	-4.889986325048	2.047039760278	
O	-3.293779086728	-1.676943736529	1.394879088276	
H	-2.355999708697	-1.623456434317	1.302210859152	
H	-3.631828826668	-0.809865516148	1.237474554937	
O	-0.584313899041	2.507677879582	4.136047551699	
H	-1.375557057608	2.041027026965	3.919138123816	
H	-0.812064182129	3.130244859914	4.807924488113	
