110
0
  N           -2.312810       -0.004600       -0.089453
  C           -0.919716       -0.003128       -0.036009
  C           -0.207615        1.200407       -0.035588
  C            1.180023        1.196876       -0.040249
  C            1.888540        0.000212       -0.045138
  C            1.182603       -1.198238       -0.043925
  C           -0.204958       -1.205399       -0.040406
  H           -0.744429       -2.146458       -0.043423
  H            1.716617       -2.141762       -0.046491
  H            2.971586        0.001480       -0.047997
  H            1.711419        2.141842       -0.037794
  H           -0.749742        2.139928       -0.029819
  H           -2.754473        0.843705        0.236924
  H           -2.757045       -0.824864        0.299367
  O            1.776099        4.839061       -2.104953
  H            0.922474        4.417392       -2.262849
  H            2.412820        4.114859       -2.144181
  O            3.678307        3.835106        0.871780
  H            3.602003        4.111603        1.793267
  H            3.413896        4.612633        0.364868
  O           -1.922015        2.123894        4.917131
  H           -2.752782        2.337482        4.474843
  H           -1.271186        2.094900        4.205090
  O           -5.270528       -2.239508        0.598408
  H           -5.377395       -1.345796        0.946648
  H           -4.617676       -2.647711        1.180281
  O           -4.497208       -1.781990       -2.685005
  H           -4.560148       -1.078551       -3.342746
  H           -4.408159       -1.317265       -1.843861
  O           -0.627395       -3.673798       -3.700910
  H           -0.179702       -3.513384       -4.540702
  H           -1.534572       -3.889717       -3.949566
  O            4.756284        1.977038       -2.558796
  H            5.082983        1.915164       -1.652788
  H            4.843679        1.081386       -2.907495
  O            1.453015        0.374086        2.644798
  H            2.358699        0.704303        2.690685
  H            0.905250        1.167136        2.694250
  O            2.106470        2.544522        4.747271
  H            1.270611        3.023466        4.689273
  H            2.694705        3.013618        4.142829
  O            1.804944       -4.192057        2.826243
  H            1.345755       -3.524021        2.302521
  H            1.461631       -4.074198        3.720483
  O            1.816907        2.386395       -4.197505
  H            2.749174        2.552615       -4.383679
  H            1.351187        3.105709       -4.641482
  O           -1.467220       -1.100146       -4.282011
  H           -1.813614       -1.212959       -3.388313
  H           -2.248087       -0.928378       -4.822533
  O           -3.227672       -3.812911       -1.277119
  H           -2.289353       -4.036268       -1.309992
  H           -3.601524       -4.438136       -0.644071
  O            1.526980       -4.883568       -0.125602
  H            1.282929       -5.588071        0.487200
  H            0.707811       -4.676045       -0.591776
  O            2.751245       -3.992245       -3.097181
  H            1.920103       -4.480637       -3.051490
  H            3.124317       -4.069244       -2.210440
  O           -1.462609        1.796749       -5.264006
  H           -1.310837        2.423262       -4.545772
  H           -0.620261        1.336305       -5.363312
  O           -0.540415        5.720471        0.272006
  H           -0.934252        5.646416       -0.605957
  H            0.410625        5.734145        0.108430
  O            5.080907        1.750981        1.989559
  H            5.095221        0.940055        2.512631
  H            5.026179        1.446401        1.075416
  O            4.451020       -1.957189        3.071345
  H            4.939524       -1.793745        2.255219
  H            3.523401       -1.922590        2.807248
  O           -3.732039        1.864608       -3.331336
  H           -4.615153        1.649483       -3.006923
  H           -3.151838        1.237036       -2.883071
  O           -1.458246       -1.040914        5.447215
  H           -0.786856       -0.347852        5.429531
  H           -2.282766       -0.582024        5.244710
  O           -1.474325       -1.228517        2.697366
  H           -1.438560       -0.265132        2.652412
  H           -0.549183       -1.503191        2.706798
  O           -3.171298        4.200532       -1.354869
  H           -2.464699        3.595157       -1.611090
  H           -3.940191        3.631668       -1.225955
  O            2.356475       -1.047866        5.138288
  H            1.959441       -0.205205        5.390674
  H            1.603483       -1.629475        4.976561
  O           -2.520810        3.900672        2.224343
  H           -3.478364        3.935527        2.339610
  H           -2.392897        3.922584        1.268006
  O            0.231803        4.567056        2.664737
  H            1.131176        4.915756        2.695531
  H            0.287681        3.810414        2.068254
  O            4.735622       -3.273531       -0.053843
  H            3.982375       -3.622773        0.438153
  H            4.431462       -2.419460       -0.384708
  O           -1.163244       -4.782182        1.450284
  H           -0.816447       -5.236469        2.227951
  H           -1.470140       -5.492739        0.873790
  O           -2.757634       -3.682468        3.402065
  H           -2.038767       -3.562964        4.034806
  H           -3.383802       -2.979343        3.614081
  O           -4.839337        0.320941        3.066087
  H           -4.383587       -0.423174        3.478393
  H           -4.136422        0.827853        2.641386
  O            0.477685       -0.030170       -2.430061
  H            0.003654        0.747098       -2.750313
  H            1.380624        0.090827       -2.748624
  O            3.769143       -1.409125       -4.031951
  H            2.875612       -1.556247       -4.365671
  H            3.668684       -1.399550       -3.072140
